
/*--------------------------------*- C++ -*----------------------------------*/

// File was generated by SwiftBlock, a Blender 3D addon.

FoamFile
{
    version     2.0;
    format      ascii;
    class       dictionary;
    object      blockMeshDict;
}
// * * * * * * * * * * * * * * * * * * * * * * * * * * * * * * * * * * * * * //

deltaT          1;

writeInterval   1;



// ************************************************************************* //


geometry
{
}
vertices
(
    (9.0 1.0 1.0)
    (9.0 1.0 0.0)
    (9.0 0.0 1.0)
    (9.0 0.0 0.0)
    (-1.0 1.0 1.0)
    (-1.0 1.0 0.0)
    (-1.0 0.0 1.0)
    (-1.0 0.0 0.0)
);
edges
(
);
faces
(
);
blocks
(
// block id 0 
hex (0 1 3 2 4 5 7 6)  (1 30 30) edgeGrading (
(
 (0 0 1) (1 1 1) (0 0 1) 
)
(
 (0 0 1) (1 1 1) (0 0 1) 
)
(
 (0 0 1) (1 1 1) (0 0 1) 
)
(
 (0 0 1) (1 1 1) (0 0 1) 
)
(
 (0 0 1) (1 30 1) (0 0 1) 
)
(
 (0 0 1) (1 30 1) (0 0 1) 
)
(
 (0 0 1) (1 30 1) (0 0 1) 
)
(
 (0 0 1) (1 30 1) (0 0 1) 
)
(
 (0 0 1) (1 30 1) (0 0 1) 
)
(
 (0 0 1) (1 30 1) (0 0 1) 
)
(
 (0 0 1) (1 30 1) (0 0 1) 
)
(
 (0 0 1) (1 30 1) (0 0 1) 
)
)
);

patches
(
     patch inlet
    (
        (7 6 4 5)
    )
     patch outlet
    (
        (1 0 2 3)
    )
     empty FrontAndBack
    (
        (3 2 6 7)
        (5 4 0 1)
    )
     wall TopAndBottom
    (
        (0 4 6 2)
        (5 1 3 7)
    )
);